Questionable use of curly braces in "b1 0 gate_model_fetdrive  i={if(v(drive_sig)>0,uplim({drive_i},(0-v(gate_model_fetdrive))/{r_gatedrive},{soft_factor}),0)}"
    Error: undefined symbol in: "if([v](drive_sig)>0,uplim((drive_i),(0-v(gate_model_fetdrive))/(r_gatedrive),(soft_factor)),0)"
Questionable use of curly braces in "b2 gate_model_fetdrive vss_model_fetdrive  i={if(v(drive_sig)<0,uplim({drive_i},(v(gate_model_fetdrive)-v(vss_model_fetdrive))/{r_gatedrive},{soft_factor}),0)}"
    Error: undefined symbol in: "if([v](drive_sig)<0,uplim((drive_i),(v(gate_model_fetdrive)-v(vss_model_fetdrive))/(r_gatedrive),(soft_factor)),0)"
Questionable use of curly braces in "b3 0 drain_model_fetdrive i={uplim(15,(1000-v(drain_model_fetdrive))/50,10)}"
    Error: undefined symbol in: "[uplim](15,(1000-v(drain_model_fetdrive))/50,10)"
Questionable use of curly braces in "b4 0 gate_spice_fetdrive  i={if(v(drive_sig)>0,uplim({drive_i},(0-v(gate_spice_fetdrive))/{r_gatedrive},{soft_factor}),0)}"
    Error: undefined symbol in: "if([v](drive_sig)>0,uplim((drive_i),(0-v(gate_spice_fetdrive))/(r_gatedrive),(soft_factor)),0)"
Questionable use of curly braces in "b5 gate_spice_fetdrive vss_spice_fetdrive  i={if(v(drive_sig)<0,uplim({drive_i},(v(gate_spice_fetdrive)-v(vss_spice_fetdrive))/{r_gatedrive},{soft_factor}),0)}"
    Error: undefined symbol in: "if([v](drive_sig)<0,uplim((drive_i),(v(gate_spice_fetdrive)-v(vss_spice_fetdrive))/(r_gatedrive),(soft_factor)),0)"
Questionable use of curly braces in "b6 0 drain_spice_fetdrive i={uplim(15,(1000-v(drain_spice_fetdrive))/50,10)}"
    Error: undefined symbol in: "[uplim](15,(1000-v(drain_spice_fetdrive))/50,10)"
Questionable use of curly braces in "b7 0 drain_model_vdrive  i={{miller}*uplim(15,(1000-v(drain_model_vdrive))/50,10)}"
    Error: undefined symbol in: "(miller)*[uplim](15,(1000-v(drain_model_vdrive))/50,10)"
Circuit: * Z:\home\yrrapt\Downloads\gate_drive\LTSpice\Sic_driver.asc

Direct Newton iteration for .op point succeeded.
Heightened Def Con from 1.13906e-08 to 1.13937e-08
Heightened Def Con from 1.20083e-08 to 1.20087e-08
Heightened Def Con from 1.20736e-08 to 1.20876e-08
Heightened Def Con from 1.35829e-08 to 1.35829e-08
Heightened Def Con from 1.36775e-08 to 1.36779e-08
Heightened Def Con from 1.56882e-08 to 1.57148e-08
Heightened Def Con from 4.98974e-08 to 5e-08
Heightened Def Con from 5.08411e-08 to 5.08411e-08
Heightened Def Con from 5.14676e-08 to 5.14693e-08
Heightened Def Con from 6.82838e-08 to 6.82869e-08
Heightened Def Con from 7.01681e-08 to 7.01682e-08
Heightened Def Con from 7.02437e-08 to 7.02455e-08
Heightened Def Con from 7.1852e-08 to 7.18523e-08
Heightened Def Con from 7.18526e-08 to 7.18557e-08
Heightened Def Con from 7.18775e-08 to 7.18775e-08
Heightened Def Con from 1.10196e-07 to 1.10196e-07
Heightened Def Con from 1.10347e-07 to 1.10347e-07
Heightened Def Con from 1.1102e-07 to 1.11023e-07
Heightened Def Con from 1.11455e-07 to 1.11469e-07
Heightened Def Con from 1.11531e-07 to 1.11545e-07
Heightened Def Con from 1.11546e-07 to 1.11546e-07
Heightened Def Con from 1.11546e-07 to 1.11549e-07
Heightened Def Con from 1.11568e-07 to 1.11568e-07
Heightened Def Con from 1.11651e-07 to 1.11651e-07
Heightened Def Con from 1.11808e-07 to 1.11808e-07
Heightened Def Con from 1.12101e-07 to 1.12101e-07
Heightened Def Con from 1.13209e-07 to 1.13209e-07
Heightened Def Con from 1.15122e-07 to 1.15122e-07
Heightened Def Con from 1.15402e-07 to 1.15402e-07
Heightened Def Con from 1.50051e-07 to 1.5011e-07
Heightened Def Con from 1.5099e-07 to 1.5099e-07
Heightened Def Con from 1.68153e-07 to 1.68153e-07
Heightened Def Con from 1.68186e-07 to 1.68186e-07
Heightened Def Con from 1.68255e-07 to 1.68255e-07
Heightened Def Con from 1.68287e-07 to 1.6829e-07
Heightened Def Con from 1.68294e-07 to 1.68295e-07
Heightened Def Con from 1.68308e-07 to 1.68311e-07
Heightened Def Con from 1.70219e-07 to 1.70221e-07
Heightened Def Con from 1.70245e-07 to 1.70248e-07
Heightened Def Con from 1.70255e-07 to 1.70255e-07
Heightened Def Con from 1.71645e-07 to 1.71648e-07
Heightened Def Con from 1.71752e-07 to 1.71752e-07
Heightened Def Con from 1.71834e-07 to 1.71836e-07
Heightened Def Con from 1.71836e-07 to 1.71836e-07
Heightened Def Con from 1.71845e-07 to 1.71847e-07
Heightened Def Con from 1.71869e-07 to 1.71869e-07
Heightened Def Con from 1.72859e-07 to 1.72862e-07
Heightened Def Con from 2.10259e-07 to 2.10259e-07
Heightened Def Con from 2.10408e-07 to 2.10408e-07
Heightened Def Con from 2.10535e-07 to 2.10535e-07
Heightened Def Con from 2.10718e-07 to 2.10732e-07
Heightened Def Con from 2.10829e-07 to 2.10829e-07
Heightened Def Con from 2.11023e-07 to 2.11023e-07
Heightened Def Con from 2.11064e-07 to 2.11064e-07
Heightened Def Con from 2.11494e-07 to 2.11497e-07
Heightened Def Con from 2.11528e-07 to 2.11531e-07
Heightened Def Con from 2.11535e-07 to 2.11561e-07
Heightened Def Con from 2.11562e-07 to 2.11565e-07
Heightened Def Con from 2.11896e-07 to 2.11896e-07
Heightened Def Con from 2.12033e-07 to 2.12033e-07
Heightened Def Con from 2.12251e-07 to 2.12253e-07
Heightened Def Con from 2.13435e-07 to 2.13449e-07
Heightened Def Con from 2.55892e-07 to 2.55893e-07
Heightened Def Con from 2.6497e-07 to 2.64973e-07
Heightened Def Con from 2.67996e-07 to 2.67996e-07
Heightened Def Con from 2.68301e-07 to 2.68304e-07
Heightened Def Con from 2.69941e-07 to 2.69941e-07
Heightened Def Con from 2.70021e-07 to 2.70024e-07
Heightened Def Con from 2.7013e-07 to 2.70131e-07
Heightened Def Con from 2.70248e-07 to 2.70248e-07
Heightened Def Con from 2.71783e-07 to 2.71783e-07
Heightened Def Con from 2.71807e-07 to 2.71809e-07
Heightened Def Con from 2.7181e-07 to 2.71813e-07
Heightened Def Con from 3.10178e-07 to 3.10181e-07
Heightened Def Con from 3.11468e-07 to 3.11471e-07
Heightened Def Con from 3.11477e-07 to 3.1148e-07
Heightened Def Con from 3.11489e-07 to 3.11489e-07
Heightened Def Con from 3.1153e-07 to 3.1153e-07
Heightened Def Con from 3.11793e-07 to 3.11796e-07
Heightened Def Con from 3.12022e-07 to 3.12022e-07
Heightened Def Con from 3.13011e-07 to 3.13011e-07
Heightened Def Con from 3.13026e-07 to 3.13026e-07
Heightened Def Con from 3.1327e-07 to 3.13283e-07
Heightened Def Con from 3.15127e-07 to 3.15141e-07
Heightened Def Con from 3.15536e-07 to 3.15536e-07
Heightened Def Con from 3.50822e-07 to 3.50822e-07
Heightened Def Con from 3.59816e-07 to 3.59816e-07
Heightened Def Con from 3.6797e-07 to 3.6797e-07
Heightened Def Con from 3.68151e-07 to 3.68151e-07
Heightened Def Con from 3.68185e-07 to 3.68185e-07
Heightened Def Con from 3.68258e-07 to 3.68258e-07
Heightened Def Con from 3.70116e-07 to 3.70116e-07
Heightened Def Con from 3.70376e-07 to 3.70379e-07
Heightened Def Con from 3.70386e-07 to 3.70386e-07
Heightened Def Con from 3.70396e-07 to 3.70397e-07
Heightened Def Con from 3.71311e-07 to 3.71314e-07
Heightened Def Con from 3.71315e-07 to 3.71318e-07
Heightened Def Con from 3.71501e-07 to 3.71501e-07
Heightened Def Con from 3.7181e-07 to 3.7181e-07
Heightened Def Con from 3.71824e-07 to 3.71826e-07
Heightened Def Con from 3.71873e-07 to 3.71874e-07
Heightened Def Con from 3.7292e-07 to 3.72923e-07
Heightened Def Con from 3.72988e-07 to 3.72988e-07
Heightened Def Con from 4.10266e-07 to 4.1027e-07
Heightened Def Con from 4.10275e-07 to 4.10275e-07
Heightened Def Con from 4.10334e-07 to 4.10335e-07
Heightened Def Con from 4.10555e-07 to 4.10556e-07
Heightened Def Con from 4.1093e-07 to 4.10934e-07
Heightened Def Con from 4.1149e-07 to 4.11491e-07
Heightened Def Con from 4.11533e-07 to 4.11547e-07
Heightened Def Con from 4.11549e-07 to 4.11549e-07
Heightened Def Con from 4.1156e-07 to 4.1156e-07
Heightened Def Con from 4.1156e-07 to 4.1156e-07
Heightened Def Con from 4.12982e-07 to 4.12982e-07
Heightened Def Con from 4.13015e-07 to 4.13018e-07
Heightened Def Con from 4.13102e-07 to 4.13102e-07
Heightened Def Con from 4.1316e-07 to 4.13161e-07
Heightened Def Con from 4.13329e-07 to 4.13354e-07
Heightened Def Con from 4.5005e-07 to 4.5045e-07
Heightened Def Con from 4.53914e-07 to 4.53917e-07
Heightened Def Con from 4.5985e-07 to 4.5985e-07
Heightened Def Con from 4.65023e-07 to 4.65023e-07
Heightened Def Con from 4.6825e-07 to 4.6825e-07
Heightened Def Con from 4.68334e-07 to 4.68334e-07
Heightened Def Con from 4.71142e-07 to 4.71142e-07
Heightened Def Con from 4.71187e-07 to 4.71187e-07
Heightened Def Con from 4.7129e-07 to 4.7129e-07
Heightened Def Con from 4.71814e-07 to 4.71814e-07
Heightened Def Con from 4.71815e-07 to 4.71818e-07
Heightened Def Con from 4.71823e-07 to 4.71825e-07
Heightened Def Con from 4.71853e-07 to 4.71853e-07
Heightened Def Con from 4.71858e-07 to 4.71861e-07
Heightened Def Con from 4.7297e-07 to 4.72971e-07
Heightened Def Con from 5.10236e-07 to 5.10236e-07
Heightened Def Con from 5.10437e-07 to 5.1044e-07
Heightened Def Con from 5.10659e-07 to 5.10659e-07
Heightened Def Con from 5.11483e-07 to 5.11497e-07
Heightened Def Con from 5.11542e-07 to 5.11542e-07
Heightened Def Con from 5.11542e-07 to 5.11542e-07
Heightened Def Con from 5.11596e-07 to 5.11596e-07
Heightened Def Con from 5.1184e-07 to 5.1184e-07
Heightened Def Con from 5.13172e-07 to 5.13172e-07
Heightened Def Con from 5.133e-07 to 5.133e-07
Heightened Def Con from 5.68446e-07 to 5.68446e-07
Heightened Def Con from 5.70274e-07 to 5.70277e-07
Heightened Def Con from 5.70375e-07 to 5.70375e-07
Heightened Def Con from 5.70384e-07 to 5.70387e-07
Heightened Def Con from 5.71444e-07 to 5.71444e-07
Heightened Def Con from 5.7182e-07 to 5.71823e-07
Heightened Def Con from 5.71823e-07 to 5.71823e-07
Heightened Def Con from 5.71834e-07 to 5.71835e-07
Heightened Def Con from 5.71843e-07 to 5.71846e-07
Heightened Def Con from 5.71854e-07 to 5.71855e-07
Heightened Def Con from 5.71868e-07 to 5.71871e-07
Heightened Def Con from 5.719e-07 to 5.719e-07
Heightened Def Con from 5.72357e-07 to 5.7236e-07
Heightened Def Con from 5.72739e-07 to 5.72739e-07
Heightened Def Con from 5.72904e-07 to 5.72907e-07
Heightened Def Con from 6.10924e-07 to 6.10924e-07
Heightened Def Con from 6.11425e-07 to 6.11425e-07
Heightened Def Con from 6.11451e-07 to 6.11454e-07
Heightened Def Con from 6.11457e-07 to 6.11471e-07
Heightened Def Con from 6.11519e-07 to 6.11519e-07
Heightened Def Con from 6.11519e-07 to 6.11519e-07
Heightened Def Con from 6.1152e-07 to 6.11523e-07
Heightened Def Con from 6.11538e-07 to 6.11538e-07
Heightened Def Con from 6.11538e-07 to 6.11538e-07
Heightened Def Con from 6.11539e-07 to 6.11539e-07
Heightened Def Con from 6.11719e-07 to 6.11733e-07
Heightened Def Con from 6.1312e-07 to 6.13123e-07
Heightened Def Con from 6.13317e-07 to 6.13317e-07
Heightened Def Con from 6.15063e-07 to 6.15063e-07
Heightened Def Con from 6.501e-07 to 6.504e-07
Heightened Def Con from 6.50909e-07 to 6.50909e-07
Heightened Def Con from 6.68065e-07 to 6.68065e-07
Heightened Def Con from 6.68198e-07 to 6.68198e-07
Heightened Def Con from 6.68303e-07 to 6.68303e-07
Heightened Def Con from 6.69913e-07 to 6.69913e-07
Heightened Def Con from 6.70226e-07 to 6.70226e-07
Heightened Def Con from 6.70289e-07 to 6.70292e-07
Heightened Def Con from 6.71294e-07 to 6.71294e-07
Heightened Def Con from 6.7183e-07 to 6.71832e-07
Heightened Def Con from 6.71832e-07 to 6.71832e-07
Heightened Def Con from 6.7185e-07 to 6.7185e-07
Heightened Def Con from 6.71859e-07 to 6.71862e-07
Heightened Def Con from 6.72418e-07 to 6.72419e-07
Heightened Def Con from 7.10214e-07 to 7.10214e-07
Heightened Def Con from 7.11478e-07 to 7.11478e-07
Heightened Def Con from 7.11489e-07 to 7.11489e-07
Heightened Def Con from 7.11521e-07 to 7.11534e-07
Heightened Def Con from 7.11538e-07 to 7.11538e-07
Heightened Def Con from 7.11541e-07 to 7.11544e-07
Heightened Def Con from 7.11549e-07 to 7.11549e-07
Heightened Def Con from 7.11549e-07 to 7.11563e-07
Heightened Def Con from 7.13057e-07 to 7.1307e-07
Heightened Def Con from 7.15138e-07 to 7.15138e-07
Heightened Def Con from 7.68019e-07 to 7.68019e-07
Heightened Def Con from 7.68177e-07 to 7.68177e-07
Heightened Def Con from 7.70028e-07 to 7.70028e-07
Heightened Def Con from 7.7036e-07 to 7.7036e-07
Heightened Def Con from 7.71155e-07 to 7.71157e-07
Heightened Def Con from 7.71222e-07 to 7.71224e-07
Heightened Def Con from 7.71429e-07 to 7.71432e-07
Heightened Def Con from 7.71804e-07 to 7.71807e-07
Heightened Def Con from 7.7181e-07 to 7.71813e-07
Heightened Def Con from 7.71827e-07 to 7.7183e-07
Heightened Def Con from 7.71844e-07 to 7.71844e-07
Heightened Def Con from 7.71847e-07 to 7.71849e-07
Heightened Def Con from 7.71849e-07 to 7.71849e-07
Heightened Def Con from 7.7185e-07 to 7.71853e-07
Heightened Def Con from 8.10235e-07 to 8.10235e-07
Heightened Def Con from 8.10306e-07 to 8.10306e-07
Heightened Def Con from 8.10428e-07 to 8.10428e-07
Heightened Def Con from 8.10428e-07 to 8.10431e-07
Heightened Def Con from 8.10791e-07 to 8.10805e-07
Heightened Def Con from 8.11459e-07 to 8.11459e-07
Heightened Def Con from 8.11641e-07 to 8.11655e-07
Heightened Def Con from 8.11681e-07 to 8.11695e-07
Heightened Def Con from 8.11769e-07 to 8.11774e-07
Heightened Def Con from 8.11779e-07 to 8.11793e-07
Heightened Def Con from 8.12994e-07 to 8.12994e-07
Heightened Def Con from 8.13127e-07 to 8.13127e-07
Heightened Def Con from 8.13213e-07 to 8.13215e-07
Heightened Def Con from 8.13236e-07 to 8.13249e-07
Heightened Def Con from 8.15116e-07 to 8.15118e-07
Heightened Def Con from 8.15148e-07 to 8.15148e-07
Heightened Def Con from 8.15242e-07 to 8.15242e-07
Heightened Def Con from 8.50795e-07 to 8.50797e-07
Heightened Def Con from 8.50857e-07 to 8.50857e-07
Heightened Def Con from 8.6807e-07 to 8.68073e-07
Heightened Def Con from 8.68264e-07 to 8.68266e-07
Heightened Def Con from 8.70149e-07 to 8.70152e-07
Heightened Def Con from 8.70241e-07 to 8.70243e-07
Heightened Def Con from 8.70258e-07 to 8.70258e-07
Heightened Def Con from 8.71318e-07 to 8.71318e-07
Heightened Def Con from 8.71351e-07 to 8.71351e-07
Heightened Def Con from 8.71627e-07 to 8.71627e-07
Heightened Def Con from 8.71836e-07 to 8.71839e-07
Heightened Def Con from 8.71843e-07 to 8.71846e-07
Heightened Def Con from 8.71858e-07 to 8.71858e-07
Heightened Def Con from 9.10187e-07 to 9.1019e-07
Heightened Def Con from 9.11453e-07 to 9.11466e-07
Heightened Def Con from 9.11481e-07 to 9.11482e-07
Heightened Def Con from 9.11533e-07 to 9.11533e-07
Heightened Def Con from 9.11544e-07 to 9.11544e-07
Heightened Def Con from 9.11555e-07 to 9.11567e-07
Heightened Def Con from 9.11691e-07 to 9.11694e-07
Heightened Def Con from 9.13279e-07 to 9.13279e-07
Heightened Def Con from 9.15286e-07 to 9.15286e-07
Heightened Def Con from 9.50796e-07 to 9.50796e-07
Heightened Def Con from 9.50825e-07 to 9.50828e-07
Heightened Def Con from 9.69988e-07 to 9.69988e-07
Heightened Def Con from 9.70055e-07 to 9.70058e-07
Heightened Def Con from 9.70258e-07 to 9.70259e-07
Heightened Def Con from 9.71807e-07 to 9.71807e-07
Heightened Def Con from 9.71826e-07 to 9.71829e-07
Heightened Def Con from 9.7183e-07 to 9.71833e-07
Heightened Def Con from 9.71836e-07 to 9.71839e-07
Heightened Def Con from 1.01027e-06 to 1.01027e-06
Heightened Def Con from 1.01028e-06 to 1.01028e-06
Heightened Def Con from 1.0104e-06 to 1.0104e-06
Heightened Def Con from 1.01062e-06 to 1.01063e-06
Heightened Def Con from 1.01064e-06 to 1.01064e-06
Heightened Def Con from 1.01081e-06 to 1.01081e-06
Heightened Def Con from 1.0112e-06 to 1.01121e-06
Heightened Def Con from 1.01149e-06 to 1.01152e-06
Heightened Def Con from 1.01155e-06 to 1.01155e-06
Heightened Def Con from 1.01321e-06 to 1.01322e-06
Heightened Def Con from 1.01322e-06 to 1.01325e-06
Heightened Def Con from 1.0134e-06 to 1.01341e-06
Heightened Def Con from 1.01828e-06 to 1.01838e-06
Heightened Def Con from 1.05093e-06 to 1.05093e-06
Heightened Def Con from 1.06626e-06 to 1.06626e-06
Heightened Def Con from 1.06804e-06 to 1.06804e-06
Heightened Def Con from 1.06806e-06 to 1.06806e-06
Heightened Def Con from 1.06812e-06 to 1.06812e-06
Heightened Def Con from 1.06817e-06 to 1.06817e-06
Heightened Def Con from 1.07021e-06 to 1.07021e-06
Heightened Def Con from 1.07035e-06 to 1.07035e-06
Heightened Def Con from 1.07118e-06 to 1.07118e-06
Heightened Def Con from 1.07182e-06 to 1.07182e-06
Heightened Def Con from 1.07182e-06 to 1.07182e-06
Heightened Def Con from 1.07184e-06 to 1.07184e-06
Heightened Def Con from 1.07184e-06 to 1.07184e-06
Heightened Def Con from 1.07184e-06 to 1.07185e-06
Heightened Def Con from 1.07186e-06 to 1.07186e-06
Heightened Def Con from 1.07188e-06 to 1.07188e-06
Heightened Def Con from 1.07188e-06 to 1.07188e-06
Heightened Def Con from 1.0729e-06 to 1.0729e-06
Heightened Def Con from 1.11022e-06 to 1.11022e-06
Heightened Def Con from 1.11027e-06 to 1.11027e-06
Heightened Def Con from 1.11031e-06 to 1.11031e-06
Heightened Def Con from 1.11058e-06 to 1.11058e-06
Heightened Def Con from 1.11072e-06 to 1.11072e-06
Heightened Def Con from 1.11079e-06 to 1.1108e-06
Heightened Def Con from 1.11145e-06 to 1.11145e-06
Heightened Def Con from 1.11148e-06 to 1.1115e-06
Heightened Def Con from 1.11152e-06 to 1.11153e-06
Heightened Def Con from 1.11157e-06 to 1.11157e-06
Heightened Def Con from 1.11157e-06 to 1.11157e-06
Heightened Def Con from 1.11173e-06 to 1.11173e-06
Heightened Def Con from 1.11208e-06 to 1.11208e-06
Heightened Def Con from 1.11295e-06 to 1.11295e-06
Heightened Def Con from 1.11314e-06 to 1.11314e-06
Heightened Def Con from 1.1152e-06 to 1.1152e-06
Heightened Def Con from 1.11538e-06 to 1.11538e-06
Heightened Def Con from 1.15078e-06 to 1.15079e-06
Heightened Def Con from 1.16616e-06 to 1.16616e-06
Heightened Def Con from 1.16804e-06 to 1.16804e-06
Heightened Def Con from 1.16822e-06 to 1.16823e-06
Heightened Def Con from 1.16827e-06 to 1.16827e-06
Heightened Def Con from 1.16828e-06 to 1.16828e-06
Heightened Def Con from 1.17007e-06 to 1.17007e-06
Heightened Def Con from 1.17008e-06 to 1.17008e-06
Heightened Def Con from 1.17028e-06 to 1.17028e-06
Heightened Def Con from 1.17031e-06 to 1.17031e-06
Heightened Def Con from 1.17034e-06 to 1.17034e-06
Heightened Def Con from 1.17034e-06 to 1.17034e-06
Heightened Def Con from 1.17036e-06 to 1.17036e-06
Heightened Def Con from 1.17148e-06 to 1.17148e-06
Heightened Def Con from 1.17181e-06 to 1.17181e-06
Heightened Def Con from 1.17181e-06 to 1.17181e-06
Heightened Def Con from 1.17182e-06 to 1.17183e-06
Heightened Def Con from 1.17183e-06 to 1.17183e-06
Heightened Def Con from 1.17184e-06 to 1.17185e-06
Heightened Def Con from 1.17185e-06 to 1.17185e-06
Heightened Def Con from 1.17263e-06 to 1.17263e-06
Heightened Def Con from 1.17264e-06 to 1.17264e-06
Heightened Def Con from 1.2105e-06 to 1.2105e-06
Heightened Def Con from 1.21064e-06 to 1.21064e-06
Heightened Def Con from 1.21143e-06 to 1.21143e-06
Heightened Def Con from 1.21144e-06 to 1.21144e-06
Heightened Def Con from 1.21144e-06 to 1.21146e-06
Heightened Def Con from 1.21152e-06 to 1.21153e-06
Heightened Def Con from 1.21187e-06 to 1.21187e-06
Heightened Def Con from 1.21206e-06 to 1.21209e-06
Heightened Def Con from 1.21322e-06 to 1.21322e-06
Heightened Def Con from 1.21325e-06 to 1.21325e-06
Heightened Def Con from 1.21335e-06 to 1.21335e-06
Heightened Def Con from 1.21508e-06 to 1.21509e-06
Heightened Def Con from 1.21517e-06 to 1.21517e-06
Heightened Def Con from 1.21517e-06 to 1.21519e-06
Heightened Def Con from 1.25009e-06 to 1.25039e-06
Heightened Def Con from 1.25079e-06 to 1.25082e-06
Heightened Def Con from 1.26487e-06 to 1.26487e-06
Heightened Def Con from 1.26776e-06 to 1.26776e-06
Heightened Def Con from 1.26815e-06 to 1.26815e-06
Heightened Def Con from 1.26819e-06 to 1.26819e-06
Heightened Def Con from 1.2701e-06 to 1.2701e-06
Heightened Def Con from 1.27168e-06 to 1.27168e-06
Heightened Def Con from 1.27182e-06 to 1.27182e-06
Heightened Def Con from 1.27183e-06 to 1.27183e-06
Heightened Def Con from 1.27183e-06 to 1.27183e-06
Heightened Def Con from 1.27184e-06 to 1.27184e-06
Heightened Def Con from 1.27186e-06 to 1.27186e-06
Heightened Def Con from 1.31072e-06 to 1.31072e-06
Heightened Def Con from 1.31072e-06 to 1.31074e-06
Heightened Def Con from 1.31149e-06 to 1.3115e-06
Heightened Def Con from 1.31154e-06 to 1.31154e-06
Heightened Def Con from 1.31154e-06 to 1.31154e-06
Heightened Def Con from 1.31154e-06 to 1.31154e-06
Heightened Def Con from 1.31155e-06 to 1.31155e-06
Heightened Def Con from 1.3116e-06 to 1.3116e-06
Heightened Def Con from 1.31536e-06 to 1.31536e-06
Heightened Def Con from 1.31659e-06 to 1.31659e-06
Heightened Def Con from 1.3508e-06 to 1.3508e-06
Heightened Def Con from 1.35103e-06 to 1.35105e-06
Heightened Def Con from 1.353e-06 to 1.353e-06
Heightened Def Con from 1.36507e-06 to 1.36508e-06
Heightened Def Con from 1.36608e-06 to 1.36608e-06
Heightened Def Con from 1.36825e-06 to 1.36825e-06
Heightened Def Con from 1.36999e-06 to 1.36999e-06
Heightened Def Con from 1.37013e-06 to 1.37013e-06
Heightened Def Con from 1.37014e-06 to 1.37014e-06
Heightened Def Con from 1.37027e-06 to 1.37028e-06
Heightened Def Con from 1.37186e-06 to 1.37186e-06
Heightened Def Con from 1.41022e-06 to 1.41022e-06
Heightened Def Con from 1.41026e-06 to 1.41026e-06
Heightened Def Con from 1.41039e-06 to 1.4104e-06
Heightened Def Con from 1.41066e-06 to 1.41066e-06
Heightened Def Con from 1.41066e-06 to 1.41066e-06
Heightened Def Con from 1.41081e-06 to 1.41081e-06
Heightened Def Con from 1.41084e-06 to 1.41085e-06
Heightened Def Con from 1.41094e-06 to 1.41096e-06
Heightened Def Con from 1.4115e-06 to 1.4115e-06
Heightened Def Con from 1.4115e-06 to 1.4115e-06
Heightened Def Con from 1.41154e-06 to 1.41154e-06
Heightened Def Con from 1.41154e-06 to 1.41154e-06
Heightened Def Con from 1.41156e-06 to 1.41156e-06
Heightened Def Con from 1.41156e-06 to 1.41158e-06
Heightened Def Con from 1.41197e-06 to 1.41197e-06
Heightened Def Con from 1.41221e-06 to 1.41221e-06
Heightened Def Con from 1.41295e-06 to 1.41297e-06
Heightened Def Con from 1.4501e-06 to 1.4504e-06
Heightened Def Con from 1.46803e-06 to 1.46803e-06
Heightened Def Con from 1.46827e-06 to 1.46827e-06
Heightened Def Con from 1.46828e-06 to 1.46828e-06
Heightened Def Con from 1.47186e-06 to 1.47186e-06
Heightened Def Con from 1.47186e-06 to 1.47186e-06
Heightened Def Con from 1.47274e-06 to 1.47274e-06
Heightened Def Con from 1.51049e-06 to 1.51049e-06
Heightened Def Con from 1.51103e-06 to 1.51103e-06
Heightened Def Con from 1.51115e-06 to 1.51117e-06
Heightened Def Con from 1.51146e-06 to 1.51146e-06
Heightened Def Con from 1.51146e-06 to 1.51147e-06
Heightened Def Con from 1.51147e-06 to 1.51148e-06
Heightened Def Con from 1.51148e-06 to 1.5115e-06
Heightened Def Con from 1.51152e-06 to 1.51153e-06
Heightened Def Con from 1.51154e-06 to 1.51154e-06
Heightened Def Con from 1.51156e-06 to 1.51156e-06
Heightened Def Con from 1.51162e-06 to 1.51162e-06
Heightened Def Con from 1.51302e-06 to 1.51302e-06
Heightened Def Con from 1.5131e-06 to 1.51311e-06
Heightened Def Con from 1.51326e-06 to 1.51326e-06
Heightened Def Con from 1.51328e-06 to 1.51328e-06
Heightened Def Con from 1.55082e-06 to 1.55082e-06
Heightened Def Con from 1.55113e-06 to 1.55113e-06
Heightened Def Con from 1.57182e-06 to 1.57182e-06
Heightened Def Con from 1.57185e-06 to 1.57185e-06
Heightened Def Con from 1.57185e-06 to 1.57185e-06
Heightened Def Con from 1.57185e-06 to 1.57185e-06
Heightened Def Con from 1.57185e-06 to 1.57185e-06
Heightened Def Con from 1.57185e-06 to 1.57185e-06
Heightened Def Con from 1.57186e-06 to 1.57186e-06
Heightened Def Con from 1.57323e-06 to 1.57323e-06
Heightened Def Con from 1.61021e-06 to 1.61021e-06
Heightened Def Con from 1.61058e-06 to 1.61058e-06
Heightened Def Con from 1.61101e-06 to 1.61104e-06
Heightened Def Con from 1.61145e-06 to 1.61145e-06
Heightened Def Con from 1.61145e-06 to 1.61145e-06
Heightened Def Con from 1.61147e-06 to 1.61148e-06
Heightened Def Con from 1.61154e-06 to 1.61156e-06
Heightened Def Con from 1.61197e-06 to 1.61197e-06
Heightened Def Con from 1.61217e-06 to 1.61217e-06
Heightened Def Con from 1.61316e-06 to 1.61317e-06
Heightened Def Con from 1.61515e-06 to 1.61517e-06
Heightened Def Con from 1.61522e-06 to 1.61523e-06
Heightened Def Con from 1.61523e-06 to 1.61523e-06
Heightened Def Con from 1.65006e-06 to 1.65036e-06
Heightened Def Con from 1.66822e-06 to 1.66822e-06
Heightened Def Con from 1.67019e-06 to 1.67019e-06
Heightened Def Con from 1.67021e-06 to 1.67021e-06
Heightened Def Con from 1.6711e-06 to 1.67111e-06
Heightened Def Con from 1.67115e-06 to 1.67115e-06
Heightened Def Con from 1.67145e-06 to 1.67145e-06
Heightened Def Con from 1.67182e-06 to 1.67183e-06
Heightened Def Con from 1.67183e-06 to 1.67183e-06
Heightened Def Con from 1.67186e-06 to 1.67186e-06
Heightened Def Con from 1.67253e-06 to 1.67253e-06
Heightened Def Con from 1.67323e-06 to 1.67324e-06
Heightened Def Con from 1.71012e-06 to 1.71012e-06
Heightened Def Con from 1.71148e-06 to 1.71148e-06
Heightened Def Con from 1.71148e-06 to 1.71148e-06
Heightened Def Con from 1.71157e-06 to 1.71157e-06
Heightened Def Con from 1.71306e-06 to 1.71306e-06
Heightened Def Con from 1.71314e-06 to 1.71316e-06
Heightened Def Con from 1.71503e-06 to 1.71503e-06
Heightened Def Con from 1.75009e-06 to 1.75039e-06
Heightened Def Con from 1.7508e-06 to 1.7508e-06
Heightened Def Con from 1.76773e-06 to 1.76773e-06
Heightened Def Con from 1.76819e-06 to 1.76819e-06
Heightened Def Con from 1.76829e-06 to 1.7683e-06
Heightened Def Con from 1.76832e-06 to 1.76833e-06
Heightened Def Con from 1.7702e-06 to 1.77021e-06
Heightened Def Con from 1.77031e-06 to 1.77032e-06
Heightened Def Con from 1.77143e-06 to 1.77143e-06
Heightened Def Con from 1.77181e-06 to 1.77181e-06
Heightened Def Con from 1.77182e-06 to 1.77183e-06
Heightened Def Con from 1.77183e-06 to 1.77183e-06
Heightened Def Con from 1.77187e-06 to 1.77187e-06
Heightened Def Con from 1.77294e-06 to 1.77295e-06
Heightened Def Con from 1.81018e-06 to 1.81018e-06
Heightened Def Con from 1.81034e-06 to 1.81034e-06
Heightened Def Con from 1.81058e-06 to 1.81059e-06
Heightened Def Con from 1.81147e-06 to 1.81149e-06
Heightened Def Con from 1.81153e-06 to 1.81153e-06
Heightened Def Con from 1.81153e-06 to 1.81153e-06
Heightened Def Con from 1.81154e-06 to 1.81154e-06
Heightened Def Con from 1.81156e-06 to 1.81156e-06
Heightened Def Con from 1.81164e-06 to 1.81164e-06
Heightened Def Con from 1.81305e-06 to 1.81305e-06
Heightened Def Con from 1.81311e-06 to 1.81311e-06
Heightened Def Con from 1.81319e-06 to 1.81319e-06
Heightened Def Con from 1.8132e-06 to 1.8132e-06
Heightened Def Con from 1.81321e-06 to 1.81321e-06
Heightened Def Con from 1.81513e-06 to 1.81513e-06
Heightened Def Con from 1.85485e-06 to 1.85485e-06
Heightened Def Con from 1.86828e-06 to 1.86829e-06
Heightened Def Con from 1.87183e-06 to 1.87183e-06
Heightened Def Con from 1.87183e-06 to 1.87183e-06
Heightened Def Con from 1.87184e-06 to 1.87184e-06
Heightened Def Con from 1.87185e-06 to 1.87185e-06
Heightened Def Con from 1.87187e-06 to 1.87187e-06
Heightened Def Con from 1.91014e-06 to 1.91014e-06
Heightened Def Con from 1.91017e-06 to 1.91017e-06
Heightened Def Con from 1.91019e-06 to 1.91019e-06
Heightened Def Con from 1.9102e-06 to 1.91021e-06
Heightened Def Con from 1.91056e-06 to 1.91056e-06
Heightened Def Con from 1.91086e-06 to 1.91086e-06
Heightened Def Con from 1.91149e-06 to 1.91149e-06
Heightened Def Con from 1.9115e-06 to 1.9115e-06
Heightened Def Con from 1.91152e-06 to 1.91152e-06
Heightened Def Con from 1.91152e-06 to 1.91152e-06
Heightened Def Con from 1.91155e-06 to 1.91155e-06
Heightened Def Con from 1.91226e-06 to 1.91226e-06
Heightened Def Con from 1.91312e-06 to 1.91312e-06
Heightened Def Con from 1.91322e-06 to 1.91323e-06
Heightened Def Con from 1.91344e-06 to 1.91344e-06
Heightened Def Con from 1.91512e-06 to 1.91512e-06
Heightened Def Con from 1.9501e-06 to 1.9504e-06
Heightened Def Con from 1.95113e-06 to 1.95113e-06
Heightened Def Con from 1.96796e-06 to 1.96796e-06
Heightened Def Con from 1.96797e-06 to 1.96797e-06
Heightened Def Con from 1.96816e-06 to 1.96816e-06
Heightened Def Con from 1.97008e-06 to 1.97009e-06
Heightened Def Con from 1.9701e-06 to 1.97011e-06
Heightened Def Con from 1.97023e-06 to 1.97023e-06
Heightened Def Con from 1.9711e-06 to 1.9711e-06
Heightened Def Con from 1.97112e-06 to 1.97112e-06
Heightened Def Con from 1.97174e-06 to 1.97174e-06
Heightened Def Con from 1.97182e-06 to 1.97182e-06
Heightened Def Con from 1.97182e-06 to 1.97182e-06
Heightened Def Con from 1.97183e-06 to 1.97183e-06
Heightened Def Con from 1.97188e-06 to 1.97188e-06
Heightened Def Con from 1.97261e-06 to 1.97261e-06
Heightened Def Con from 2.0102e-06 to 2.0102e-06
Heightened Def Con from 2.01023e-06 to 2.01023e-06
Heightened Def Con from 2.01111e-06 to 2.01111e-06
Heightened Def Con from 2.01145e-06 to 2.01146e-06
Heightened Def Con from 2.01152e-06 to 2.01152e-06
Heightened Def Con from 2.01152e-06 to 2.01153e-06
Heightened Def Con from 2.01154e-06 to 2.01154e-06
Heightened Def Con from 2.01155e-06 to 2.01155e-06
Heightened Def Con from 2.01155e-06 to 2.01155e-06
Heightened Def Con from 2.01171e-06 to 2.01171e-06
Heightened Def Con from 2.01173e-06 to 2.01173e-06
Heightened Def Con from 2.01203e-06 to 2.01206e-06
Heightened Def Con from 2.01298e-06 to 2.01298e-06
Heightened Def Con from 2.01307e-06 to 2.01307e-06
Heightened Def Con from 2.01319e-06 to 2.01319e-06
Heightened Def Con from 2.0132e-06 to 2.0132e-06
Heightened Def Con from 2.01323e-06 to 2.01325e-06
Heightened Def Con from 2.01327e-06 to 2.01327e-06
Heightened Def Con from 2.01327e-06 to 2.01327e-06
Heightened Def Con from 2.01332e-06 to 2.01332e-06
Heightened Def Con from 2.01647e-06 to 2.01647e-06
Heightened Def Con from 2.05078e-06 to 2.05078e-06
Heightened Def Con from 2.06826e-06 to 2.06826e-06
Heightened Def Con from 2.06831e-06 to 2.06831e-06
Heightened Def Con from 2.06989e-06 to 2.06989e-06
Heightened Def Con from 2.0703e-06 to 2.0703e-06
Heightened Def Con from 2.07181e-06 to 2.07181e-06
Heightened Def Con from 2.07185e-06 to 2.07185e-06
Heightened Def Con from 2.07189e-06 to 2.07189e-06
Heightened Def Con from 2.11055e-06 to 2.11055e-06
Heightened Def Con from 2.11075e-06 to 2.11075e-06
Heightened Def Con from 2.11146e-06 to 2.11147e-06
Heightened Def Con from 2.11154e-06 to 2.11154e-06
Heightened Def Con from 2.11155e-06 to 2.11155e-06
Heightened Def Con from 2.11192e-06 to 2.11192e-06
Heightened Def Con from 2.1122e-06 to 2.1122e-06
Heightened Def Con from 2.11298e-06 to 2.11298e-06
Heightened Def Con from 2.11302e-06 to 2.11305e-06
Heightened Def Con from 2.11318e-06 to 2.11319e-06
Heightened Def Con from 2.15097e-06 to 2.15097e-06
Heightened Def Con from 2.15146e-06 to 2.15146e-06
Heightened Def Con from 2.1699e-06 to 2.1699e-06
Heightened Def Con from 2.17023e-06 to 2.17023e-06
Heightened Def Con from 2.17181e-06 to 2.17181e-06
Heightened Def Con from 2.17181e-06 to 2.17181e-06
Heightened Def Con from 2.17181e-06 to 2.17181e-06
Heightened Def Con from 2.17182e-06 to 2.17182e-06
Heightened Def Con from 2.17184e-06 to 2.17184e-06
Heightened Def Con from 2.17184e-06 to 2.17184e-06
Heightened Def Con from 2.17185e-06 to 2.17185e-06
Heightened Def Con from 2.17187e-06 to 2.17187e-06
Heightened Def Con from 2.17257e-06 to 2.17257e-06
Heightened Def Con from 2.21017e-06 to 2.21017e-06
Heightened Def Con from 2.21017e-06 to 2.21017e-06
Heightened Def Con from 2.21028e-06 to 2.21028e-06
Heightened Def Con from 2.21033e-06 to 2.21034e-06
Heightened Def Con from 2.21038e-06 to 2.21038e-06
Heightened Def Con from 2.2107e-06 to 2.2107e-06
Heightened Def Con from 2.21075e-06 to 2.21075e-06
Heightened Def Con from 2.21075e-06 to 2.21075e-06
Heightened Def Con from 2.21112e-06 to 2.21112e-06
Heightened Def Con from 2.21145e-06 to 2.21145e-06
Heightened Def Con from 2.21153e-06 to 2.21153e-06
Heightened Def Con from 2.21316e-06 to 2.21317e-06
Heightened Def Con from 2.21337e-06 to 2.21338e-06
Heightened Def Con from 2.26501e-06 to 2.26501e-06
Heightened Def Con from 2.26813e-06 to 2.26813e-06
Heightened Def Con from 2.27004e-06 to 2.27004e-06
Heightened Def Con from 2.27007e-06 to 2.27007e-06
Heightened Def Con from 2.27008e-06 to 2.27008e-06
Heightened Def Con from 2.27034e-06 to 2.27034e-06
Heightened Def Con from 2.27036e-06 to 2.27037e-06
Heightened Def Con from 2.27169e-06 to 2.2717e-06
Heightened Def Con from 2.2718e-06 to 2.27181e-06
Heightened Def Con from 2.27181e-06 to 2.27182e-06
Heightened Def Con from 2.31049e-06 to 2.3105e-06
Heightened Def Con from 2.31091e-06 to 2.31091e-06
Heightened Def Con from 2.31108e-06 to 2.31108e-06
Heightened Def Con from 2.31144e-06 to 2.31144e-06
Heightened Def Con from 2.31149e-06 to 2.31149e-06
Heightened Def Con from 2.31149e-06 to 2.31149e-06
Heightened Def Con from 2.31151e-06 to 2.31151e-06
Heightened Def Con from 2.31153e-06 to 2.31153e-06
Heightened Def Con from 2.31155e-06 to 2.31156e-06
Heightened Def Con from 2.31202e-06 to 2.31202e-06
Heightened Def Con from 2.31208e-06 to 2.31208e-06
Heightened Def Con from 2.31298e-06 to 2.31298e-06
Heightened Def Con from 2.31334e-06 to 2.31335e-06
Heightened Def Con from 2.3151e-06 to 2.3151e-06
Heightened Def Con from 2.35084e-06 to 2.35084e-06
Heightened Def Con from 2.35089e-06 to 2.35089e-06
Heightened Def Con from 2.35094e-06 to 2.35094e-06
Heightened Def Con from 2.368e-06 to 2.368e-06
Heightened Def Con from 2.3682e-06 to 2.36821e-06
Heightened Def Con from 2.36824e-06 to 2.36824e-06
Heightened Def Con from 2.36827e-06 to 2.36827e-06
Heightened Def Con from 2.36991e-06 to 2.36991e-06
Heightened Def Con from 2.37035e-06 to 2.37036e-06
Heightened Def Con from 2.3711e-06 to 2.3711e-06
Heightened Def Con from 2.37149e-06 to 2.37149e-06
Heightened Def Con from 2.37162e-06 to 2.37162e-06
Heightened Def Con from 2.37182e-06 to 2.37182e-06
Heightened Def Con from 2.37183e-06 to 2.37183e-06
Heightened Def Con from 2.37188e-06 to 2.37188e-06
Heightened Def Con from 2.37188e-06 to 2.37188e-06
Heightened Def Con from 2.37188e-06 to 2.37188e-06
Heightened Def Con from 2.4103e-06 to 2.4103e-06
Heightened Def Con from 2.4103e-06 to 2.4103e-06
Heightened Def Con from 2.41035e-06 to 2.41035e-06
Heightened Def Con from 2.4104e-06 to 2.4104e-06
Heightened Def Con from 2.41058e-06 to 2.41058e-06
Heightened Def Con from 2.41082e-06 to 2.41082e-06
Heightened Def Con from 2.41082e-06 to 2.41082e-06
Heightened Def Con from 2.4109e-06 to 2.4109e-06
Heightened Def Con from 2.4115e-06 to 2.41151e-06
Heightened Def Con from 2.41152e-06 to 2.41152e-06
Heightened Def Con from 2.41171e-06 to 2.41171e-06
Heightened Def Con from 2.41177e-06 to 2.41177e-06
Heightened Def Con from 2.41203e-06 to 2.41203e-06
Heightened Def Con from 2.41211e-06 to 2.41211e-06
Heightened Def Con from 2.4132e-06 to 2.4132e-06
Heightened Def Con from 2.41337e-06 to 2.41337e-06
Heightened Def Con from 2.41502e-06 to 2.41503e-06
Heightened Def Con from 2.4151e-06 to 2.4151e-06
Heightened Def Con from 2.41517e-06 to 2.41517e-06
Heightened Def Con from 2.41522e-06 to 2.41522e-06
Heightened Def Con from 2.41525e-06 to 2.41525e-06
Heightened Def Con from 2.41528e-06 to 2.41528e-06
Heightened Def Con from 2.45083e-06 to 2.45083e-06
Heightened Def Con from 2.45103e-06 to 2.45103e-06
Heightened Def Con from 2.45123e-06 to 2.45126e-06
Heightened Def Con from 2.45972e-06 to 2.45972e-06
Heightened Def Con from 2.46834e-06 to 2.46834e-06
Heightened Def Con from 2.47024e-06 to 2.47024e-06
Heightened Def Con from 2.47119e-06 to 2.47119e-06
Heightened Def Con from 2.47164e-06 to 2.47164e-06
Heightened Def Con from 2.4717e-06 to 2.4717e-06
Heightened Def Con from 2.47172e-06 to 2.47172e-06
Heightened Def Con from 2.47182e-06 to 2.47182e-06
Heightened Def Con from 2.47182e-06 to 2.47182e-06
Heightened Def Con from 2.47187e-06 to 2.47187e-06
Heightened Def Con from 2.47187e-06 to 2.47187e-06
Heightened Def Con from 2.47187e-06 to 2.47188e-06
Heightened Def Con from 2.51038e-06 to 2.51038e-06
Heightened Def Con from 2.51057e-06 to 2.51057e-06
Heightened Def Con from 2.51086e-06 to 2.51086e-06
Heightened Def Con from 2.51119e-06 to 2.51119e-06
Heightened Def Con from 2.51123e-06 to 2.51123e-06
Heightened Def Con from 2.51143e-06 to 2.51143e-06
Heightened Def Con from 2.51149e-06 to 2.51149e-06
Heightened Def Con from 2.5115e-06 to 2.5115e-06
Heightened Def Con from 2.51153e-06 to 2.51155e-06
Heightened Def Con from 2.51155e-06 to 2.51155e-06
Heightened Def Con from 2.51155e-06 to 2.51155e-06
Heightened Def Con from 2.51155e-06 to 2.51157e-06
Heightened Def Con from 2.51305e-06 to 2.51305e-06
Heightened Def Con from 2.51321e-06 to 2.51321e-06
Heightened Def Con from 2.51514e-06 to 2.51515e-06
Heightened Def Con from 2.51519e-06 to 2.51522e-06
Heightened Def Con from 2.55082e-06 to 2.55082e-06
Heightened Def Con from 2.56809e-06 to 2.56809e-06
Heightened Def Con from 2.57033e-06 to 2.57033e-06
Heightened Def Con from 2.57038e-06 to 2.57038e-06
Heightened Def Con from 2.57165e-06 to 2.57165e-06
Heightened Def Con from 2.57182e-06 to 2.57182e-06
Heightened Def Con from 2.57182e-06 to 2.57182e-06
Heightened Def Con from 2.57182e-06 to 2.57182e-06
Heightened Def Con from 2.57183e-06 to 2.57183e-06
Heightened Def Con from 2.57185e-06 to 2.57185e-06
Heightened Def Con from 2.57254e-06 to 2.57254e-06
Heightened Def Con from 2.61025e-06 to 2.61025e-06
Heightened Def Con from 2.61031e-06 to 2.61031e-06
Heightened Def Con from 2.61112e-06 to 2.61112e-06
Heightened Def Con from 2.61146e-06 to 2.61146e-06
Heightened Def Con from 2.61149e-06 to 2.61149e-06
Heightened Def Con from 2.61151e-06 to 2.61151e-06
Heightened Def Con from 2.61157e-06 to 2.61157e-06
Heightened Def Con from 2.61191e-06 to 2.61191e-06
Heightened Def Con from 2.61205e-06 to 2.61207e-06
Heightened Def Con from 2.61309e-06 to 2.61311e-06
Heightened Def Con from 2.61321e-06 to 2.61322e-06
Heightened Def Con from 2.61327e-06 to 2.61327e-06
Heightened Def Con from 2.61337e-06 to 2.61337e-06
Heightened Def Con from 2.61502e-06 to 2.61502e-06
Heightened Def Con from 2.61516e-06 to 2.61517e-06
Heightened Def Con from 2.61518e-06 to 2.61519e-06
Heightened Def Con from 2.65006e-06 to 2.65036e-06
Heightened Def Con from 2.66661e-06 to 2.66661e-06
Heightened Def Con from 2.6703e-06 to 2.6703e-06
Heightened Def Con from 2.67181e-06 to 2.67181e-06
Heightened Def Con from 2.67182e-06 to 2.67182e-06
Heightened Def Con from 2.67183e-06 to 2.67183e-06
Heightened Def Con from 2.67184e-06 to 2.67184e-06
Heightened Def Con from 2.67185e-06 to 2.67185e-06
Heightened Def Con from 2.67186e-06 to 2.67186e-06
Heightened Def Con from 2.67188e-06 to 2.67189e-06
Heightened Def Con from 2.6727e-06 to 2.6727e-06
Heightened Def Con from 2.67296e-06 to 2.67296e-06
Heightened Def Con from 2.71058e-06 to 2.71058e-06
Heightened Def Con from 2.71059e-06 to 2.71059e-06
Heightened Def Con from 2.71092e-06 to 2.71092e-06
Heightened Def Con from 2.71146e-06 to 2.71147e-06
Heightened Def Con from 2.71153e-06 to 2.71153e-06
Heightened Def Con from 2.71153e-06 to 2.71155e-06
Heightened Def Con from 2.71155e-06 to 2.71155e-06
Heightened Def Con from 2.71156e-06 to 2.71156e-06
Heightened Def Con from 2.71156e-06 to 2.71156e-06
Heightened Def Con from 2.71323e-06 to 2.71323e-06
Heightened Def Con from 2.71323e-06 to 2.71324e-06
Heightened Def Con from 2.71511e-06 to 2.71512e-06
Heightened Def Con from 2.7185e-06 to 2.7185e-06
Heightened Def Con from 2.75085e-06 to 2.75085e-06
Heightened Def Con from 2.76822e-06 to 2.76822e-06
Heightened Def Con from 2.76994e-06 to 2.76994e-06
Heightened Def Con from 2.77035e-06 to 2.77035e-06
Heightened Def Con from 2.77169e-06 to 2.77169e-06
Heightened Def Con from 2.77185e-06 to 2.77185e-06
Heightened Def Con from 2.7729e-06 to 2.7729e-06
Heightened Def Con from 2.81055e-06 to 2.81055e-06
Heightened Def Con from 2.81058e-06 to 2.81058e-06
Heightened Def Con from 2.81069e-06 to 2.81069e-06
Heightened Def Con from 2.81148e-06 to 2.8115e-06
Heightened Def Con from 2.81155e-06 to 2.81155e-06
Heightened Def Con from 2.81155e-06 to 2.81155e-06
Heightened Def Con from 2.81156e-06 to 2.81156e-06
Heightened Def Con from 2.81167e-06 to 2.81167e-06
Heightened Def Con from 2.81304e-06 to 2.81305e-06
Heightened Def Con from 2.81315e-06 to 2.81316e-06
Heightened Def Con from 2.81338e-06 to 2.81338e-06
Heightened Def Con from 2.81345e-06 to 2.81345e-06
Heightened Def Con from 2.86813e-06 to 2.86813e-06
Heightened Def Con from 2.87036e-06 to 2.87036e-06
Heightened Def Con from 2.87135e-06 to 2.87135e-06
Heightened Def Con from 2.87166e-06 to 2.87166e-06
Heightened Def Con from 2.8718e-06 to 2.8718e-06
Heightened Def Con from 2.87181e-06 to 2.87181e-06
Heightened Def Con from 2.87181e-06 to 2.87181e-06
Heightened Def Con from 2.87182e-06 to 2.87182e-06
Heightened Def Con from 2.87186e-06 to 2.87186e-06
Heightened Def Con from 2.87186e-06 to 2.87186e-06
Heightened Def Con from 2.91035e-06 to 2.91035e-06
Heightened Def Con from 2.91061e-06 to 2.91061e-06
Heightened Def Con from 2.91075e-06 to 2.91076e-06
Heightened Def Con from 2.91146e-06 to 2.91146e-06
Heightened Def Con from 2.91147e-06 to 2.91147e-06
Heightened Def Con from 2.91152e-06 to 2.91152e-06
Heightened Def Con from 2.91152e-06 to 2.91153e-06
Heightened Def Con from 2.91154e-06 to 2.91154e-06
Heightened Def Con from 2.91154e-06 to 2.91154e-06
Heightened Def Con from 2.91154e-06 to 2.91155e-06
Heightened Def Con from 2.91184e-06 to 2.91184e-06
Heightened Def Con from 2.91225e-06 to 2.91225e-06
Heightened Def Con from 2.91314e-06 to 2.91314e-06
Heightened Def Con from 2.91324e-06 to 2.91324e-06
Heightened Def Con from 2.91504e-06 to 2.91504e-06
Heightened Def Con from 2.95089e-06 to 2.95089e-06
Heightened Def Con from 2.96256e-06 to 2.96257e-06
Heightened Def Con from 2.96506e-06 to 2.96506e-06
Heightened Def Con from 2.97035e-06 to 2.97035e-06
Heightened Def Con from 2.97147e-06 to 2.97147e-06
Heightened Def Con from 2.97158e-06 to 2.97158e-06
Heightened Def Con from 2.9718e-06 to 2.9718e-06
Heightened Def Con from 2.97181e-06 to 2.97181e-06
Heightened Def Con from 2.97183e-06 to 2.97183e-06
Heightened Def Con from 2.97186e-06 to 2.97186e-06
Heightened Def Con from 3.01012e-06 to 3.01013e-06
Heightened Def Con from 3.01023e-06 to 3.01023e-06
Heightened Def Con from 3.01024e-06 to 3.01024e-06
Heightened Def Con from 3.01033e-06 to 3.01033e-06
Heightened Def Con from 3.01036e-06 to 3.01038e-06
Heightened Def Con from 3.01124e-06 to 3.01124e-06
Heightened Def Con from 3.01155e-06 to 3.01155e-06
Heightened Def Con from 3.01155e-06 to 3.01156e-06
Heightened Def Con from 3.013e-06 to 3.01301e-06
Heightened Def Con from 3.01315e-06 to 3.01315e-06
Heightened Def Con from 3.0151e-06 to 3.01511e-06
Heightened Def Con from 3.01518e-06 to 3.0152e-06
Heightened Def Con from 3.05085e-06 to 3.05085e-06
Heightened Def Con from 3.05092e-06 to 3.05092e-06
Heightened Def Con from 3.05097e-06 to 3.05098e-06
Heightened Def Con from 3.06499e-06 to 3.06499e-06
Heightened Def Con from 3.0682e-06 to 3.0682e-06
Heightened Def Con from 3.06827e-06 to 3.06827e-06
Heightened Def Con from 3.07027e-06 to 3.07027e-06
Heightened Def Con from 3.0704e-06 to 3.0704e-06
Heightened Def Con from 3.07143e-06 to 3.07144e-06
Heightened Def Con from 3.07181e-06 to 3.07181e-06
Heightened Def Con from 3.07182e-06 to 3.07182e-06
Heightened Def Con from 3.07183e-06 to 3.07183e-06
Heightened Def Con from 3.07184e-06 to 3.07184e-06
Heightened Def Con from 3.07184e-06 to 3.07184e-06
Heightened Def Con from 3.07186e-06 to 3.07186e-06
Heightened Def Con from 3.11094e-06 to 3.11094e-06
Heightened Def Con from 3.11145e-06 to 3.11148e-06
Heightened Def Con from 3.11148e-06 to 3.11148e-06
Heightened Def Con from 3.11156e-06 to 3.11156e-06
Heightened Def Con from 3.11156e-06 to 3.11156e-06
Heightened Def Con from 3.11156e-06 to 3.11158e-06
Heightened Def Con from 3.11222e-06 to 3.11225e-06
Heightened Def Con from 3.11305e-06 to 3.11305e-06
Heightened Def Con from 3.11316e-06 to 3.11318e-06
Heightened Def Con from 3.11333e-06 to 3.11334e-06
Heightened Def Con from 3.11335e-06 to 3.11335e-06
Heightened Def Con from 3.11541e-06 to 3.11541e-06
Heightened Def Con from 3.11829e-06 to 3.11829e-06
Heightened Def Con from 3.15593e-06 to 3.15593e-06
Heightened Def Con from 3.15976e-06 to 3.15976e-06
Heightened Def Con from 3.17016e-06 to 3.17017e-06
Heightened Def Con from 3.1708e-06 to 3.1708e-06
Heightened Def Con from 3.17127e-06 to 3.17128e-06
Heightened Def Con from 3.17136e-06 to 3.17137e-06
Heightened Def Con from 3.17138e-06 to 3.17138e-06
Heightened Def Con from 3.17183e-06 to 3.17183e-06
Heightened Def Con from 3.17187e-06 to 3.17187e-06
Heightened Def Con from 3.17187e-06 to 3.17187e-06
Heightened Def Con from 3.17273e-06 to 3.17273e-06
Heightened Def Con from 3.21021e-06 to 3.21021e-06
Heightened Def Con from 3.21035e-06 to 3.21037e-06
Heightened Def Con from 3.21062e-06 to 3.21063e-06
Heightened Def Con from 3.21066e-06 to 3.21066e-06
Heightened Def Con from 3.21153e-06 to 3.21154e-06
Heightened Def Con from 3.21154e-06 to 3.21155e-06
Heightened Def Con from 3.21155e-06 to 3.21157e-06
Heightened Def Con from 3.21296e-06 to 3.21296e-06
Heightened Def Con from 3.21314e-06 to 3.21315e-06
Heightened Def Con from 3.21513e-06 to 3.21514e-06
Heightened Def Con from 3.2508e-06 to 3.25081e-06
Heightened Def Con from 3.25085e-06 to 3.25085e-06
Heightened Def Con from 3.25096e-06 to 3.25096e-06
Heightened Def Con from 3.26452e-06 to 3.26453e-06
Heightened Def Con from 3.26811e-06 to 3.26812e-06
Heightened Def Con from 3.26827e-06 to 3.26828e-06
Heightened Def Con from 3.26828e-06 to 3.26828e-06
Heightened Def Con from 3.26992e-06 to 3.26993e-06
Heightened Def Con from 3.27021e-06 to 3.27022e-06
Heightened Def Con from 3.27031e-06 to 3.27031e-06
Heightened Def Con from 3.27031e-06 to 3.27031e-06
Heightened Def Con from 3.27032e-06 to 3.27032e-06
Heightened Def Con from 3.27114e-06 to 3.27114e-06
Heightened Def Con from 3.27168e-06 to 3.27168e-06
Heightened Def Con from 3.2718e-06 to 3.2718e-06
Heightened Def Con from 3.27181e-06 to 3.27181e-06
Heightened Def Con from 3.27181e-06 to 3.27181e-06
Heightened Def Con from 3.27182e-06 to 3.27182e-06
Heightened Def Con from 3.27183e-06 to 3.27183e-06
Heightened Def Con from 3.27185e-06 to 3.27185e-06
Heightened Def Con from 3.27185e-06 to 3.27185e-06
Heightened Def Con from 3.27186e-06 to 3.27186e-06
Heightened Def Con from 3.27187e-06 to 3.27187e-06
Heightened Def Con from 3.2719e-06 to 3.2719e-06
Heightened Def Con from 3.3106e-06 to 3.31061e-06
Heightened Def Con from 3.3107e-06 to 3.31072e-06
Heightened Def Con from 3.31145e-06 to 3.31148e-06
Heightened Def Con from 3.31148e-06 to 3.31148e-06
Heightened Def Con from 3.31148e-06 to 3.31148e-06
Heightened Def Con from 3.31151e-06 to 3.31151e-06
Heightened Def Con from 3.31154e-06 to 3.31154e-06
Heightened Def Con from 3.31154e-06 to 3.31154e-06
Heightened Def Con from 3.31155e-06 to 3.31155e-06
Heightened Def Con from 3.31155e-06 to 3.31155e-06
Heightened Def Con from 3.31156e-06 to 3.31156e-06
Heightened Def Con from 3.31194e-06 to 3.31195e-06
Heightened Def Con from 3.31199e-06 to 3.31199e-06
Heightened Def Con from 3.31322e-06 to 3.31323e-06
Heightened Def Con from 3.3151e-06 to 3.3151e-06
Heightened Def Con from 3.31538e-06 to 3.31538e-06
Heightened Def Con from 3.31542e-06 to 3.31542e-06
Heightened Def Con from 3.35005e-06 to 3.35035e-06
Heightened Def Con from 3.35085e-06 to 3.35085e-06
Heightened Def Con from 3.37015e-06 to 3.37015e-06
Heightened Def Con from 3.37029e-06 to 3.3703e-06
Heightened Def Con from 3.37131e-06 to 3.37131e-06
Heightened Def Con from 3.37147e-06 to 3.37147e-06
Heightened Def Con from 3.37176e-06 to 3.37176e-06
Heightened Def Con from 3.37181e-06 to 3.37181e-06
Heightened Def Con from 3.37182e-06 to 3.37182e-06
Heightened Def Con from 3.37183e-06 to 3.37183e-06
Heightened Def Con from 3.37184e-06 to 3.37184e-06
Heightened Def Con from 3.37188e-06 to 3.37188e-06
Heightened Def Con from 3.41034e-06 to 3.41034e-06
Heightened Def Con from 3.41064e-06 to 3.41064e-06
Heightened Def Con from 3.41139e-06 to 3.41139e-06
Heightened Def Con from 3.41144e-06 to 3.41145e-06
Heightened Def Con from 3.41154e-06 to 3.41154e-06
Heightened Def Con from 3.41174e-06 to 3.41174e-06
Heightened Def Con from 3.41212e-06 to 3.41212e-06
Heightened Def Con from 3.41221e-06 to 3.41221e-06
Heightened Def Con from 3.41318e-06 to 3.4132e-06
Heightened Def Con from 3.41335e-06 to 3.41336e-06
Heightened Def Con from 3.41505e-06 to 3.41505e-06
Heightened Def Con from 3.45086e-06 to 3.45086e-06
Heightened Def Con from 3.46696e-06 to 3.46696e-06
Heightened Def Con from 3.46814e-06 to 3.46814e-06
Heightened Def Con from 3.47e-06 to 3.47e-06
Heightened Def Con from 3.4702e-06 to 3.4702e-06
Heightened Def Con from 3.47021e-06 to 3.47021e-06
Heightened Def Con from 3.47036e-06 to 3.47036e-06
Heightened Def Con from 3.47181e-06 to 3.47181e-06
Heightened Def Con from 3.47182e-06 to 3.47182e-06
Heightened Def Con from 3.47186e-06 to 3.47186e-06
Heightened Def Con from 3.47188e-06 to 3.47188e-06
Heightened Def Con from 3.47301e-06 to 3.47301e-06
Heightened Def Con from 3.51096e-06 to 3.51097e-06
Heightened Def Con from 3.51097e-06 to 3.51098e-06
Heightened Def Con from 3.51147e-06 to 3.51147e-06
Heightened Def Con from 3.51147e-06 to 3.51147e-06
Heightened Def Con from 3.51148e-06 to 3.51148e-06
Heightened Def Con from 3.51148e-06 to 3.51149e-06
Heightened Def Con from 3.51153e-06 to 3.51153e-06
Heightened Def Con from 3.51153e-06 to 3.51153e-06
Heightened Def Con from 3.51323e-06 to 3.51323e-06
Heightened Def Con from 3.51325e-06 to 3.51325e-06
Heightened Def Con from 3.5133e-06 to 3.51333e-06
Heightened Def Con from 3.51333e-06 to 3.51335e-06
Heightened Def Con from 3.51342e-06 to 3.51342e-06
Heightened Def Con from 3.5141e-06 to 3.5141e-06
Heightened Def Con from 3.51509e-06 to 3.51509e-06
Heightened Def Con from 3.55108e-06 to 3.55111e-06
Heightened Def Con from 3.56813e-06 to 3.56813e-06
Heightened Def Con from 3.56823e-06 to 3.56823e-06
Heightened Def Con from 3.56994e-06 to 3.56994e-06
Heightened Def Con from 3.57023e-06 to 3.57024e-06
Heightened Def Con from 3.57116e-06 to 3.57116e-06
Heightened Def Con from 3.57184e-06 to 3.57184e-06
Heightened Def Con from 3.57187e-06 to 3.57188e-06
Heightened Def Con from 3.57253e-06 to 3.57253e-06
Heightened Def Con from 3.61036e-06 to 3.61036e-06
Heightened Def Con from 3.6104e-06 to 3.61042e-06
Heightened Def Con from 3.61089e-06 to 3.6109e-06
Heightened Def Con from 3.61102e-06 to 3.61104e-06
Heightened Def Con from 3.61145e-06 to 3.61145e-06
Heightened Def Con from 3.61146e-06 to 3.61146e-06
Heightened Def Con from 3.613e-06 to 3.613e-06
Heightened Def Con from 3.6131e-06 to 3.61311e-06
Heightened Def Con from 3.61318e-06 to 3.6132e-06
Heightened Def Con from 3.61334e-06 to 3.61334e-06
Heightened Def Con from 3.61513e-06 to 3.61513e-06
Heightened Def Con from 3.6594e-06 to 3.6594e-06
Heightened Def Con from 3.66294e-06 to 3.66294e-06
Heightened Def Con from 3.66818e-06 to 3.66818e-06
Heightened Def Con from 3.67016e-06 to 3.67016e-06
Heightened Def Con from 3.67022e-06 to 3.67022e-06
Heightened Def Con from 3.6716e-06 to 3.6716e-06
Heightened Def Con from 3.67182e-06 to 3.67183e-06
Heightened Def Con from 3.67183e-06 to 3.67183e-06
Heightened Def Con from 3.67186e-06 to 3.67187e-06
Heightened Def Con from 3.6719e-06 to 3.6719e-06
Heightened Def Con from 3.67286e-06 to 3.67286e-06
Heightened Def Con from 3.71024e-06 to 3.71024e-06
Heightened Def Con from 3.71024e-06 to 3.71024e-06
Heightened Def Con from 3.71073e-06 to 3.71074e-06
Heightened Def Con from 3.71147e-06 to 3.71148e-06
Heightened Def Con from 3.71148e-06 to 3.71148e-06
Heightened Def Con from 3.71148e-06 to 3.71148e-06
Heightened Def Con from 3.71148e-06 to 3.71148e-06
Heightened Def Con from 3.71148e-06 to 3.71148e-06
Heightened Def Con from 3.71148e-06 to 3.71148e-06
Heightened Def Con from 3.71159e-06 to 3.71159e-06
Heightened Def Con from 3.71164e-06 to 3.71164e-06
Heightened Def Con from 3.71175e-06 to 3.71176e-06
Heightened Def Con from 3.71322e-06 to 3.71322e-06
Heightened Def Con from 3.71334e-06 to 3.71335e-06
Heightened Def Con from 3.71508e-06 to 3.71508e-06
Heightened Def Con from 3.7152e-06 to 3.71522e-06
Heightened Def Con from 3.71539e-06 to 3.7154e-06
Heightened Def Con from 3.75084e-06 to 3.75084e-06
Heightened Def Con from 3.75106e-06 to 3.75108e-06
Heightened Def Con from 3.76796e-06 to 3.76796e-06
Heightened Def Con from 3.77001e-06 to 3.77001e-06
Heightened Def Con from 3.77002e-06 to 3.77002e-06
Heightened Def Con from 3.77014e-06 to 3.77014e-06
Heightened Def Con from 3.77017e-06 to 3.77017e-06
Heightened Def Con from 3.77162e-06 to 3.77163e-06
Heightened Def Con from 3.77182e-06 to 3.77182e-06
Heightened Def Con from 3.77183e-06 to 3.77183e-06
Heightened Def Con from 3.77187e-06 to 3.77187e-06
Heightened Def Con from 3.77187e-06 to 3.77187e-06
Heightened Def Con from 3.77253e-06 to 3.77254e-06
Heightened Def Con from 3.7732e-06 to 3.7732e-06
Heightened Def Con from 3.77324e-06 to 3.77324e-06
Heightened Def Con from 3.81011e-06 to 3.81011e-06
Heightened Def Con from 3.81015e-06 to 3.81015e-06
Heightened Def Con from 3.81031e-06 to 3.81031e-06
Heightened Def Con from 3.81148e-06 to 3.81148e-06
Heightened Def Con from 3.81148e-06 to 3.81148e-06
Heightened Def Con from 3.81152e-06 to 3.81153e-06
Heightened Def Con from 3.81153e-06 to 3.81153e-06
Heightened Def Con from 3.81154e-06 to 3.81155e-06
Heightened Def Con from 3.81167e-06 to 3.81169e-06
Heightened Def Con from 3.81197e-06 to 3.81197e-06
Heightened Def Con from 3.81299e-06 to 3.81299e-06
Heightened Def Con from 3.81334e-06 to 3.81334e-06
Heightened Def Con from 3.85005e-06 to 3.85045e-06
Heightened Def Con from 3.85738e-06 to 3.85738e-06
Heightened Def Con from 3.86283e-06 to 3.86283e-06
Heightened Def Con from 3.86504e-06 to 3.86505e-06
Heightened Def Con from 3.86814e-06 to 3.86814e-06
Heightened Def Con from 3.86815e-06 to 3.86815e-06
Heightened Def Con from 3.87016e-06 to 3.87016e-06
Heightened Def Con from 3.87021e-06 to 3.87021e-06
Heightened Def Con from 3.87024e-06 to 3.87024e-06
Heightened Def Con from 3.87025e-06 to 3.87025e-06
Heightened Def Con from 3.87029e-06 to 3.8703e-06
Heightened Def Con from 3.8703e-06 to 3.8703e-06
Heightened Def Con from 3.87182e-06 to 3.87182e-06
Heightened Def Con from 3.87184e-06 to 3.87184e-06
Heightened Def Con from 3.87185e-06 to 3.87185e-06
Heightened Def Con from 3.91065e-06 to 3.91065e-06
Heightened Def Con from 3.91069e-06 to 3.91069e-06
Heightened Def Con from 3.91116e-06 to 3.91117e-06
Heightened Def Con from 3.91151e-06 to 3.91151e-06
Heightened Def Con from 3.91318e-06 to 3.91318e-06
Heightened Def Con from 3.91322e-06 to 3.91324e-06
Heightened Def Con from 3.91325e-06 to 3.91327e-06
Heightened Def Con from 3.91331e-06 to 3.91334e-06
Heightened Def Con from 3.9501e-06 to 3.9504e-06
Heightened Def Con from 3.95079e-06 to 3.95079e-06
Heightened Def Con from 3.95081e-06 to 3.95081e-06
Heightened Def Con from 3.95082e-06 to 3.95082e-06
Heightened Def Con from 3.95097e-06 to 3.95097e-06
Heightened Def Con from 3.95121e-06 to 3.95121e-06
Heightened Def Con from 3.95966e-06 to 3.95966e-06
Heightened Def Con from 3.96816e-06 to 3.96816e-06
Heightened Def Con from 3.96823e-06 to 3.96825e-06
Heightened Def Con from 3.96828e-06 to 3.96828e-06
Heightened Def Con from 3.97014e-06 to 3.97015e-06
Heightened Def Con from 3.97033e-06 to 3.97033e-06
Heightened Def Con from 3.97038e-06 to 3.97038e-06
Heightened Def Con from 3.97181e-06 to 3.97181e-06
Heightened Def Con from 3.97183e-06 to 3.97183e-06
Heightened Def Con from 3.97184e-06 to 3.97184e-06
Heightened Def Con from 3.97184e-06 to 3.97184e-06
Heightened Def Con from 3.97186e-06 to 3.97186e-06
Heightened Def Con from 3.97259e-06 to 3.97259e-06
Heightened Def Con from 3.97277e-06 to 3.97277e-06
Heightened Def Con from 4.0103e-06 to 4.0103e-06
Heightened Def Con from 4.01045e-06 to 4.01045e-06
Heightened Def Con from 4.01087e-06 to 4.01087e-06
Heightened Def Con from 4.01104e-06 to 4.01104e-06
Heightened Def Con from 4.01155e-06 to 4.01157e-06
Heightened Def Con from 4.01182e-06 to 4.01182e-06
Heightened Def Con from 4.01212e-06 to 4.01212e-06
Heightened Def Con from 4.01324e-06 to 4.01325e-06
Heightened Def Con from 4.01339e-06 to 4.01339e-06
Heightened Def Con from 4.01857e-06 to 4.01859e-06
Heightened Def Con from 4.05078e-06 to 4.05078e-06
Heightened Def Con from 4.05667e-06 to 4.05667e-06
Heightened Def Con from 4.06799e-06 to 4.06799e-06
Heightened Def Con from 4.07011e-06 to 4.07011e-06
Heightened Def Con from 4.07032e-06 to 4.07033e-06
Heightened Def Con from 4.07034e-06 to 4.07034e-06
Heightened Def Con from 4.07034e-06 to 4.07035e-06
Heightened Def Con from 4.07093e-06 to 4.07093e-06
Heightened Def Con from 4.07109e-06 to 4.07109e-06
Heightened Def Con from 4.07175e-06 to 4.07175e-06
Heightened Def Con from 4.07181e-06 to 4.07181e-06
Heightened Def Con from 4.07183e-06 to 4.07183e-06
Heightened Def Con from 4.07183e-06 to 4.07183e-06
Heightened Def Con from 4.07185e-06 to 4.07186e-06
Heightened Def Con from 4.07261e-06 to 4.07261e-06
Heightened Def Con from 4.11022e-06 to 4.11022e-06
Heightened Def Con from 4.11057e-06 to 4.11057e-06
Heightened Def Con from 4.11151e-06 to 4.11152e-06
Heightened Def Con from 4.11152e-06 to 4.11152e-06
Heightened Def Con from 4.11152e-06 to 4.11152e-06
Heightened Def Con from 4.11165e-06 to 4.11165e-06
Heightened Def Con from 4.11183e-06 to 4.11183e-06
Heightened Def Con from 4.11203e-06 to 4.11203e-06
Heightened Def Con from 4.11299e-06 to 4.11301e-06
Heightened Def Con from 4.11304e-06 to 4.11305e-06
Heightened Def Con from 4.11316e-06 to 4.11317e-06
Heightened Def Con from 4.11321e-06 to 4.11323e-06
Heightened Def Con from 4.11333e-06 to 4.11333e-06
Heightened Def Con from 4.11507e-06 to 4.11507e-06
Heightened Def Con from 4.11514e-06 to 4.11514e-06
Heightened Def Con from 4.11826e-06 to 4.11827e-06
Heightened Def Con from 4.15078e-06 to 4.15078e-06
Heightened Def Con from 4.16759e-06 to 4.16759e-06
Heightened Def Con from 4.17018e-06 to 4.17018e-06
Heightened Def Con from 4.17027e-06 to 4.17027e-06
Heightened Def Con from 4.17184e-06 to 4.17184e-06
Heightened Def Con from 4.17185e-06 to 4.17185e-06
Heightened Def Con from 4.21032e-06 to 4.21033e-06
Heightened Def Con from 4.21037e-06 to 4.21037e-06
Heightened Def Con from 4.21048e-06 to 4.21049e-06
Heightened Def Con from 4.21052e-06 to 4.21052e-06
Heightened Def Con from 4.21054e-06 to 4.21054e-06
Heightened Def Con from 4.21068e-06 to 4.21068e-06
Heightened Def Con from 4.21068e-06 to 4.21069e-06
Heightened Def Con from 4.21152e-06 to 4.21154e-06
Heightened Def Con from 4.21154e-06 to 4.21154e-06
Heightened Def Con from 4.21155e-06 to 4.21156e-06
Heightened Def Con from 4.21168e-06 to 4.21168e-06
Heightened Def Con from 4.21188e-06 to 4.21189e-06
Heightened Def Con from 4.21299e-06 to 4.21299e-06
Heightened Def Con from 4.21301e-06 to 4.21301e-06
Heightened Def Con from 4.21342e-06 to 4.21342e-06
Heightened Def Con from 4.21523e-06 to 4.21523e-06
Heightened Def Con from 4.21523e-06 to 4.21525e-06
Heightened Def Con from 4.2501e-06 to 4.2504e-06
Heightened Def Con from 4.25082e-06 to 4.25082e-06
Heightened Def Con from 4.2511e-06 to 4.2511e-06
Heightened Def Con from 4.25121e-06 to 4.25121e-06
Heightened Def Con from 4.2682e-06 to 4.2682e-06
Heightened Def Con from 4.2683e-06 to 4.2683e-06
Heightened Def Con from 4.27028e-06 to 4.27028e-06
Heightened Def Con from 4.27191e-06 to 4.27191e-06
Heightened Def Con from 4.2724e-06 to 4.2724e-06
Heightened Def Con from 4.31011e-06 to 4.31011e-06
Heightened Def Con from 4.31012e-06 to 4.31012e-06
Heightened Def Con from 4.3106e-06 to 4.3106e-06
Heightened Def Con from 4.31061e-06 to 4.31061e-06
Heightened Def Con from 4.31142e-06 to 4.31142e-06
Heightened Def Con from 4.31152e-06 to 4.31152e-06
Heightened Def Con from 4.31154e-06 to 4.31155e-06
Heightened Def Con from 4.31155e-06 to 4.31155e-06
Heightened Def Con from 4.31301e-06 to 4.31301e-06
Heightened Def Con from 4.31314e-06 to 4.31315e-06
Heightened Def Con from 4.31336e-06 to 4.31337e-06
Heightened Def Con from 4.31338e-06 to 4.31339e-06
Heightened Def Con from 4.31505e-06 to 4.31507e-06
Heightened Def Con from 4.31526e-06 to 4.31529e-06
Heightened Def Con from 4.35082e-06 to 4.35083e-06
Heightened Def Con from 4.36825e-06 to 4.36825e-06
Heightened Def Con from 4.36833e-06 to 4.36833e-06
Heightened Def Con from 4.37033e-06 to 4.37033e-06
Heightened Def Con from 4.37033e-06 to 4.37034e-06
Heightened Def Con from 4.37037e-06 to 4.37037e-06
Heightened Def Con from 4.37142e-06 to 4.37142e-06
Heightened Def Con from 4.37144e-06 to 4.37144e-06
Heightened Def Con from 4.37155e-06 to 4.37155e-06
Heightened Def Con from 4.37182e-06 to 4.37182e-06
Heightened Def Con from 4.37184e-06 to 4.37184e-06
Heightened Def Con from 4.37189e-06 to 4.37189e-06
Heightened Def Con from 4.37189e-06 to 4.37189e-06
Heightened Def Con from 4.41021e-06 to 4.41021e-06
Heightened Def Con from 4.41064e-06 to 4.41064e-06
Heightened Def Con from 4.41103e-06 to 4.41103e-06
Heightened Def Con from 4.41153e-06 to 4.41153e-06
Heightened Def Con from 4.41153e-06 to 4.41153e-06
Heightened Def Con from 4.41167e-06 to 4.41167e-06
Heightened Def Con from 4.41344e-06 to 4.41344e-06
Heightened Def Con from 4.4151e-06 to 4.4151e-06
Heightened Def Con from 4.41521e-06 to 4.41522e-06
Heightened Def Con from 4.41539e-06 to 4.41541e-06
Heightened Def Con from 4.45086e-06 to 4.45086e-06
Heightened Def Con from 4.45094e-06 to 4.45094e-06
Heightened Def Con from 4.45117e-06 to 4.45117e-06
Heightened Def Con from 4.45287e-06 to 4.45287e-06
Heightened Def Con from 4.45969e-06 to 4.45969e-06
Heightened Def Con from 4.46502e-06 to 4.46502e-06
Heightened Def Con from 4.46822e-06 to 4.46823e-06
Heightened Def Con from 4.46829e-06 to 4.46829e-06
Heightened Def Con from 4.4699e-06 to 4.4699e-06
Heightened Def Con from 4.47005e-06 to 4.47005e-06
Heightened Def Con from 4.47038e-06 to 4.47038e-06
Heightened Def Con from 4.47111e-06 to 4.47111e-06
Heightened Def Con from 4.47137e-06 to 4.47137e-06
Heightened Def Con from 4.4716e-06 to 4.4716e-06
Heightened Def Con from 4.47183e-06 to 4.47183e-06
Heightened Def Con from 4.47183e-06 to 4.47183e-06
Heightened Def Con from 4.47183e-06 to 4.47183e-06
Heightened Def Con from 4.47187e-06 to 4.47187e-06
Heightened Def Con from 4.47304e-06 to 4.47304e-06
Heightened Def Con from 4.51142e-06 to 4.51142e-06
Heightened Def Con from 4.51152e-06 to 4.51152e-06
Heightened Def Con from 4.51152e-06 to 4.51153e-06
Heightened Def Con from 4.51153e-06 to 4.51153e-06
Heightened Def Con from 4.51154e-06 to 4.51154e-06
Heightened Def Con from 4.51154e-06 to 4.51154e-06
Heightened Def Con from 4.51156e-06 to 4.51157e-06
Heightened Def Con from 4.51157e-06 to 4.51157e-06
Heightened Def Con from 4.51168e-06 to 4.51168e-06
Heightened Def Con from 4.51175e-06 to 4.51176e-06
Heightened Def Con from 4.51202e-06 to 4.51202e-06
Heightened Def Con from 4.51206e-06 to 4.51208e-06
Heightened Def Con from 4.51297e-06 to 4.51297e-06
Heightened Def Con from 4.51333e-06 to 4.51336e-06
Heightened Def Con from 4.51343e-06 to 4.51343e-06
Heightened Def Con from 4.51348e-06 to 4.51348e-06
Heightened Def Con from 4.51523e-06 to 4.51525e-06
Heightened Def Con from 4.55088e-06 to 4.55088e-06
Heightened Def Con from 4.56802e-06 to 4.56802e-06
Heightened Def Con from 4.56831e-06 to 4.56831e-06
Heightened Def Con from 4.56995e-06 to 4.56995e-06
Heightened Def Con from 4.57011e-06 to 4.57011e-06
Heightened Def Con from 4.57034e-06 to 4.57034e-06
Heightened Def Con from 4.57132e-06 to 4.57132e-06
Heightened Def Con from 4.57162e-06 to 4.57162e-06
Heightened Def Con from 4.57171e-06 to 4.57171e-06
Heightened Def Con from 4.57183e-06 to 4.57183e-06
Heightened Def Con from 4.57186e-06 to 4.57186e-06
Heightened Def Con from 4.57186e-06 to 4.57186e-06
Heightened Def Con from 4.57188e-06 to 4.57188e-06
Heightened Def Con from 4.57266e-06 to 4.57266e-06
Heightened Def Con from 4.61033e-06 to 4.61034e-06
Heightened Def Con from 4.61103e-06 to 4.61103e-06
Heightened Def Con from 4.61144e-06 to 4.61144e-06
Heightened Def Con from 4.61144e-06 to 4.61144e-06
Heightened Def Con from 4.61144e-06 to 4.61145e-06
Heightened Def Con from 4.61148e-06 to 4.61148e-06
Heightened Def Con from 4.61211e-06 to 4.61211e-06
Heightened Def Con from 4.6132e-06 to 4.6132e-06
Heightened Def Con from 4.61325e-06 to 4.61325e-06
Heightened Def Con from 4.61338e-06 to 4.61339e-06
Heightened Def Con from 4.61509e-06 to 4.61509e-06
Heightened Def Con from 4.61523e-06 to 4.61523e-06
Heightened Def Con from 4.61535e-06 to 4.61535e-06
Heightened Def Con from 4.65084e-06 to 4.65084e-06
Heightened Def Con from 4.66817e-06 to 4.66818e-06
Heightened Def Con from 4.66829e-06 to 4.66829e-06
Heightened Def Con from 4.66992e-06 to 4.66992e-06
Heightened Def Con from 4.67028e-06 to 4.67029e-06
Heightened Def Con from 4.67136e-06 to 4.67136e-06
Heightened Def Con from 4.67184e-06 to 4.67185e-06
Heightened Def Con from 4.67185e-06 to 4.67185e-06
Heightened Def Con from 4.67186e-06 to 4.67186e-06
Heightened Def Con from 4.67187e-06 to 4.67187e-06
Heightened Def Con from 4.71011e-06 to 4.71011e-06
Heightened Def Con from 4.71023e-06 to 4.71023e-06
Heightened Def Con from 4.71059e-06 to 4.7106e-06
Heightened Def Con from 4.71064e-06 to 4.71064e-06
Heightened Def Con from 4.71148e-06 to 4.71148e-06
Heightened Def Con from 4.71183e-06 to 4.71184e-06
Heightened Def Con from 4.71306e-06 to 4.71306e-06
Heightened Def Con from 4.71312e-06 to 4.71312e-06
Heightened Def Con from 4.71539e-06 to 4.71539e-06
Heightened Def Con from 4.71542e-06 to 4.71542e-06
Heightened Def Con from 4.75009e-06 to 4.75039e-06
Heightened Def Con from 4.77181e-06 to 4.77181e-06
Heightened Def Con from 4.77181e-06 to 4.77181e-06
Heightened Def Con from 4.77182e-06 to 4.77182e-06
Heightened Def Con from 4.77185e-06 to 4.77185e-06
Heightened Def Con from 4.77188e-06 to 4.77188e-06
Heightened Def Con from 4.77188e-06 to 4.77188e-06
Heightened Def Con from 4.77284e-06 to 4.77284e-06
Heightened Def Con from 4.81041e-06 to 4.81041e-06
Heightened Def Con from 4.81083e-06 to 4.81084e-06
Heightened Def Con from 4.81152e-06 to 4.81152e-06
Heightened Def Con from 4.81154e-06 to 4.81154e-06
Heightened Def Con from 4.81154e-06 to 4.81155e-06
Heightened Def Con from 4.81156e-06 to 4.81158e-06
Heightened Def Con from 4.81172e-06 to 4.81174e-06
Heightened Def Con from 4.81222e-06 to 4.81224e-06
Heightened Def Con from 4.81323e-06 to 4.81323e-06
Heightened Def Con from 4.81323e-06 to 4.81325e-06
Heightened Def Con from 4.8134e-06 to 4.8134e-06
Heightened Def Con from 4.81522e-06 to 4.81526e-06
Heightened Def Con from 4.85006e-06 to 4.85036e-06
Heightened Def Con from 4.85086e-06 to 4.85086e-06
Heightened Def Con from 4.85104e-06 to 4.85104e-06
Heightened Def Con from 4.86819e-06 to 4.86819e-06
Heightened Def Con from 4.86829e-06 to 4.8683e-06
Heightened Def Con from 4.87013e-06 to 4.87013e-06
Heightened Def Con from 4.87034e-06 to 4.87034e-06
Heightened Def Con from 4.87038e-06 to 4.87038e-06
Heightened Def Con from 4.87109e-06 to 4.87109e-06
Heightened Def Con from 4.87142e-06 to 4.87142e-06
Heightened Def Con from 4.8716e-06 to 4.8716e-06
Heightened Def Con from 4.87181e-06 to 4.87181e-06
Heightened Def Con from 4.87182e-06 to 4.87182e-06
Heightened Def Con from 4.87183e-06 to 4.87183e-06
Heightened Def Con from 4.87184e-06 to 4.87184e-06
Heightened Def Con from 4.87186e-06 to 4.87186e-06
Heightened Def Con from 4.91012e-06 to 4.91013e-06
Heightened Def Con from 4.91047e-06 to 4.91048e-06
Heightened Def Con from 4.91058e-06 to 4.91059e-06
Heightened Def Con from 4.91103e-06 to 4.91106e-06
Heightened Def Con from 4.91145e-06 to 4.91145e-06
Heightened Def Con from 4.91153e-06 to 4.91153e-06
Heightened Def Con from 4.91153e-06 to 4.91153e-06
Heightened Def Con from 4.91296e-06 to 4.91296e-06
Heightened Def Con from 4.915e-06 to 4.915e-06
Heightened Def Con from 4.9153e-06 to 4.9153e-06
Heightened Def Con from 4.95082e-06 to 4.95084e-06
Heightened Def Con from 4.95103e-06 to 4.95103e-06
Heightened Def Con from 4.95105e-06 to 4.95105e-06
Heightened Def Con from 4.9702e-06 to 4.9702e-06
Heightened Def Con from 4.97029e-06 to 4.9703e-06
Heightened Def Con from 4.97156e-06 to 4.97156e-06
Heightened Def Con from 4.9717e-06 to 4.9717e-06
Heightened Def Con from 4.97181e-06 to 4.97181e-06
Heightened Def Con from 4.97183e-06 to 4.97183e-06
Heightened Def Con from 4.97186e-06 to 4.97186e-06
Heightened Def Con from 5.01017e-06 to 5.01017e-06
Heightened Def Con from 5.01057e-06 to 5.01057e-06
Heightened Def Con from 5.01072e-06 to 5.01072e-06
Heightened Def Con from 5.01086e-06 to 5.01086e-06
Heightened Def Con from 5.01142e-06 to 5.01142e-06
Heightened Def Con from 5.01145e-06 to 5.01145e-06
Heightened Def Con from 5.01155e-06 to 5.01157e-06
Heightened Def Con from 5.01199e-06 to 5.01199e-06
Heightened Def Con from 5.01219e-06 to 5.01219e-06
Heightened Def Con from 5.01227e-06 to 5.01229e-06
Heightened Def Con from 5.01296e-06 to 5.01296e-06
Heightened Def Con from 5.01296e-06 to 5.01298e-06
Heightened Def Con from 5.01327e-06 to 5.01327e-06
Heightened Def Con from 5.01329e-06 to 5.0133e-06
Heightened Def Con from 5.0144e-06 to 5.01442e-06
Heightened Def Con from 5.01528e-06 to 5.01528e-06
Heightened Def Con from 5.05009e-06 to 5.05039e-06
Heightened Def Con from 5.05105e-06 to 5.05105e-06
Heightened Def Con from 5.06708e-06 to 5.06709e-06
Heightened Def Con from 5.06812e-06 to 5.06812e-06
Heightened Def Con from 5.06824e-06 to 5.06824e-06
Heightened Def Con from 5.06828e-06 to 5.06828e-06
Heightened Def Con from 5.07012e-06 to 5.07012e-06
Heightened Def Con from 5.07287e-06 to 5.07287e-06

Date: Sat Jul 29 15:03:37 2023
Total elapsed time: 416.094 seconds.

tnom = 27
temp = 27
method = modified trap
totiter = 23774426
traniter = 23774419
tranpoints = 5146181
accept = 3912214
rejected = 1235300
matrix size = 38
fillins = 6
solver = Normal
Avg thread counts: 1.0/1.0/1.0/1.0
Matrix Compiler1: 1.71 KB object code size  2.5/1.8/[1.7]
Matrix Compiler2: 2.53 KB object code size  1.9/1.9/[1.8]

